Warning: file 'memory.vmh' for memory 'iMem' has a gap at addresses 4 to 7.
Warning: file 'memory.vmh' for memory 'iMem' has a gap at addresses 24 to 31.
Warning: file 'memory.vmh' for memory 'iMem' has a gap at addresses 49 to 63.
Warning: file 'memory.vmh' for memory 'iMem' has a gap at addresses 84 to 67108863.
Warning: file 'memory.vmh' for memory 'mem' has a gap at addresses 4 to 7.
Warning: file 'memory.vmh' for memory 'mem' has a gap at addresses 24 to 31.
Warning: file 'memory.vmh' for memory 'mem' has a gap at addresses 49 to 63.
Warning: file 'memory.vmh' for memory 'mem' has a gap at addresses 84 to 1048575.

Cycle                    0 ----------------------------------------------------

cycle          0
Fetch1
Fetch : from Pc                    0 , expanded inst : 30f50002000000000000, 
irmovq $'h0000000000000200,  %'h5

Cycle                    1 ----------------------------------------------------

cycle          1
Fetch1
Fetch : from Pc                   10 , expanded inst : 30f40002000000000000, 
irmovq $'h0000000000000200,  %'h4

Cycle                    2 ----------------------------------------------------

cycle          2
Exec on pc                    0
Fetch1
Fetch : from Pc                   20 , expanded inst : 70000100000000000000, 
jmp $'h0000000000000100

Cycle                    3 ----------------------------------------------------

cycle          3
Mem on pc                    0
Exec on pc                   10
Fetch1
Fetch : from Pc                   29 , expanded inst : 000000aaaaaaaaaaaaaa, 
halt

Cycle                    4 ----------------------------------------------------

cycle          4
Mem on pc                   10
Exec on pc                   20
ExecRedirect : addr                  256
Write Back
WriteE writes                  512 on  5
Fetch1
Fetch : from Pc                  256 , expanded inst : a05f204530f70f000000, 
push %'h5

Cycle                    5 ----------------------------------------------------

cycle          5
Mem on pc                   20
Exec : Invalidated on pc                   29
Write Back
WriteE writes                  512 on  4
Fetch1
Fetch : from Pc                  258 , expanded inst : 204530f70f0000000000, 
rrmovq %'h4, %'h5

Cycle                    6 ----------------------------------------------------

cycle          6
Mem invalidated on pc                   29
Exec on pc                  256
Write Back
stall occured

Cycle                    7 ----------------------------------------------------

cycle          7
Write Back
stall occured

Cycle                    8 ----------------------------------------------------

cycle          8
stall occured

Cycle                    9 ----------------------------------------------------

cycle          9
stall occured

Cycle                   10 ----------------------------------------------------

cycle         10
stall occured

Cycle                   11 ----------------------------------------------------

cycle         11
stall occured

Cycle                   12 ----------------------------------------------------

cycle         12
stall occured

Cycle                   13 ----------------------------------------------------

cycle         13
stall occured

Cycle                   14 ----------------------------------------------------

cycle         14
stall occured

Cycle                   15 ----------------------------------------------------

cycle         15
stall occured

Cycle                   16 ----------------------------------------------------

cycle         16
stall occured

Cycle                   17 ----------------------------------------------------

cycle         17
stall occured

Cycle                   18 ----------------------------------------------------

cycle         18
stall occured

Cycle                   19 ----------------------------------------------------

cycle         19
stall occured

Cycle                   20 ----------------------------------------------------

cycle         20
stall occured

Cycle                   21 ----------------------------------------------------

cycle         21
stall occured

Cycle                   22 ----------------------------------------------------

cycle         22
stall occured

Cycle                   23 ----------------------------------------------------

cycle         23
stall occured

Cycle                   24 ----------------------------------------------------

cycle         24
stall occured

Cycle                   25 ----------------------------------------------------

cycle         25
stall occured

Cycle                   26 ----------------------------------------------------

cycle         26
stall occured

Cycle                   27 ----------------------------------------------------

cycle         27
stall occured

Cycle                   28 ----------------------------------------------------

cycle         28
stall occured

Cycle                   29 ----------------------------------------------------

cycle         29
stall occured

Cycle                   30 ----------------------------------------------------

cycle         30
stall occured

Cycle                   31 ----------------------------------------------------

cycle         31
stall occured

Cycle                   32 ----------------------------------------------------

cycle         32
stall occured

Cycle                   33 ----------------------------------------------------

cycle         33
stall occured

Cycle                   34 ----------------------------------------------------

cycle         34
stall occured

Cycle                   35 ----------------------------------------------------

cycle         35
stall occured

Cycle                   36 ----------------------------------------------------

cycle         36
stall occured

Cycle                   37 ----------------------------------------------------

cycle         37
stall occured

Cycle                   38 ----------------------------------------------------

cycle         38
stall occured

Cycle                   39 ----------------------------------------------------

cycle         39
stall occured

Cycle                   40 ----------------------------------------------------

cycle         40
stall occured

Cycle                   41 ----------------------------------------------------

cycle         41
stall occured

Cycle                   42 ----------------------------------------------------

cycle         42
stall occured

Cycle                   43 ----------------------------------------------------

cycle         43
stall occured

Cycle                   44 ----------------------------------------------------

cycle         44
stall occured

Cycle                   45 ----------------------------------------------------

cycle         45
stall occured

Cycle                   46 ----------------------------------------------------

cycle         46
stall occured

Cycle                   47 ----------------------------------------------------

cycle         47
stall occured

Cycle                   48 ----------------------------------------------------

cycle         48
stall occured

Cycle                   49 ----------------------------------------------------

cycle         49
stall occured

Cycle                   50 ----------------------------------------------------

cycle         50
stall occured

Cycle                   51 ----------------------------------------------------

cycle         51
stall occured

Cycle                   52 ----------------------------------------------------

cycle         52
stall occured

Cycle                   53 ----------------------------------------------------

cycle         53
stall occured

Cycle                   54 ----------------------------------------------------

cycle         54
stall occured

Cycle                   55 ----------------------------------------------------

cycle         55
stall occured

Cycle                   56 ----------------------------------------------------

cycle         56
stall occured

Cycle                   57 ----------------------------------------------------

cycle         57
stall occured

Cycle                   58 ----------------------------------------------------

cycle         58
stall occured

Cycle                   59 ----------------------------------------------------

cycle         59
stall occured

Cycle                   60 ----------------------------------------------------

cycle         60
stall occured

Cycle                   61 ----------------------------------------------------

cycle         61
stall occured

Cycle                   62 ----------------------------------------------------

cycle         62
stall occured

Cycle                   63 ----------------------------------------------------

cycle         63
stall occured

Cycle                   64 ----------------------------------------------------

cycle         64
stall occured

Cycle                   65 ----------------------------------------------------

cycle         65
stall occured

Cycle                   66 ----------------------------------------------------

cycle         66
stall occured

Cycle                   67 ----------------------------------------------------

cycle         67
Mem on pc                  256
Store                  512 on                  504
stall occured

Cycle                   68 ----------------------------------------------------

cycle         68
Write Back
WriteE writes                  504 on  4
Fetch1
Fetch : from Pc                  260 , expanded inst : 30f70f00000000000000, 
irmovq $'h000000000000000f,  %'h7

Cycle                   69 ----------------------------------------------------

cycle         69
Exec on pc                  258
Fetch1
Fetch : from Pc                  270 , expanded inst : 30f64000000000000000, 
irmovq $'h0000000000000040,  %'h6

Cycle                   70 ----------------------------------------------------

cycle         70
Mem on pc                  258
Exec on pc                  260
Fetch1
Fetch : from Pc                  280 , expanded inst : 80000200000000000030, 
call 'h0000000000000200

Cycle                   71 ----------------------------------------------------

cycle         71
Mem on pc                  260
Exec on pc                  270
Write Back
WriteE writes                  504 on  5
Fetch1
Fetch : from Pc                  512 , expanded inst : a05f2045a03fa0cf2070, 
push %'h5

Cycle                   72 ----------------------------------------------------

cycle         72
Mem on pc                  270
Exec on pc                  280
Write Back
WriteE writes                   15 on  7
stall occured

Cycle                   73 ----------------------------------------------------

cycle         73
Mem on pc                  280
Store                  289 on                  496
Write Back
WriteE writes                   64 on  6
stall occured

Cycle                   74 ----------------------------------------------------

cycle         74
Write Back
WriteE writes                  496 on  4
Fetch1
Fetch : from Pc                  514 , expanded inst : 2045a03fa0cf20706000, 
rrmovq %'h4, %'h5

Cycle                   75 ----------------------------------------------------

cycle         75
Exec on pc                  512
stall occured

Cycle                   76 ----------------------------------------------------

cycle         76
Mem on pc                  512
Store                  504 on                  488
stall occured

Cycle                   77 ----------------------------------------------------

cycle         77
Write Back
WriteE writes                  488 on  4
Fetch1
Fetch : from Pc                  516 , expanded inst : a03fa0cf207060006000, 
push %'h3

Cycle                   78 ----------------------------------------------------

cycle         78
Exec on pc                  514
Fetch1
Fetch : from Pc                  518 , expanded inst : a0cf2070600060006000, 
push %'hc

Cycle                   79 ----------------------------------------------------

cycle         79
Mem on pc                  514
Exec on pc                  516
stall occured

Cycle                   80 ----------------------------------------------------

cycle         80
Write Back
WriteE writes                  488 on  5
stall occured

Cycle                   81 ----------------------------------------------------

cycle         81
stall occured

Cycle                   82 ----------------------------------------------------

cycle         82
stall occured

Cycle                   83 ----------------------------------------------------

cycle         83
stall occured

Cycle                   84 ----------------------------------------------------

cycle         84
stall occured

Cycle                   85 ----------------------------------------------------

cycle         85
stall occured

Cycle                   86 ----------------------------------------------------

cycle         86
stall occured

Cycle                   87 ----------------------------------------------------

cycle         87
stall occured

Cycle                   88 ----------------------------------------------------

cycle         88
stall occured

Cycle                   89 ----------------------------------------------------

cycle         89
stall occured

Cycle                   90 ----------------------------------------------------

cycle         90
stall occured

Cycle                   91 ----------------------------------------------------

cycle         91
stall occured

Cycle                   92 ----------------------------------------------------

cycle         92
stall occured

Cycle                   93 ----------------------------------------------------

cycle         93
stall occured

Cycle                   94 ----------------------------------------------------

cycle         94
stall occured

Cycle                   95 ----------------------------------------------------

cycle         95
stall occured

Cycle                   96 ----------------------------------------------------

cycle         96
stall occured

Cycle                   97 ----------------------------------------------------

cycle         97
stall occured

Cycle                   98 ----------------------------------------------------

cycle         98
stall occured

Cycle                   99 ----------------------------------------------------

cycle         99
stall occured

Cycle                  100 ----------------------------------------------------

cycle        100
stall occured

Cycle                  101 ----------------------------------------------------

cycle        101
stall occured

Cycle                  102 ----------------------------------------------------

cycle        102
stall occured

Cycle                  103 ----------------------------------------------------

cycle        103
stall occured

Cycle                  104 ----------------------------------------------------

cycle        104
stall occured

Cycle                  105 ----------------------------------------------------

cycle        105
stall occured

Cycle                  106 ----------------------------------------------------

cycle        106
stall occured

Cycle                  107 ----------------------------------------------------

cycle        107
stall occured

Cycle                  108 ----------------------------------------------------

cycle        108
stall occured

Cycle                  109 ----------------------------------------------------

cycle        109
stall occured

Cycle                  110 ----------------------------------------------------

cycle        110
stall occured

Cycle                  111 ----------------------------------------------------

cycle        111
stall occured

Cycle                  112 ----------------------------------------------------

cycle        112
stall occured

Cycle                  113 ----------------------------------------------------

cycle        113
stall occured

Cycle                  114 ----------------------------------------------------

cycle        114
stall occured

Cycle                  115 ----------------------------------------------------

cycle        115
stall occured

Cycle                  116 ----------------------------------------------------

cycle        116
stall occured

Cycle                  117 ----------------------------------------------------

cycle        117
stall occured

Cycle                  118 ----------------------------------------------------

cycle        118
stall occured

Cycle                  119 ----------------------------------------------------

cycle        119
stall occured

Cycle                  120 ----------------------------------------------------

cycle        120
stall occured

Cycle                  121 ----------------------------------------------------

cycle        121
stall occured

Cycle                  122 ----------------------------------------------------

cycle        122
stall occured

Cycle                  123 ----------------------------------------------------

cycle        123
stall occured

Cycle                  124 ----------------------------------------------------

cycle        124
stall occured

Cycle                  125 ----------------------------------------------------

cycle        125
stall occured

Cycle                  126 ----------------------------------------------------

cycle        126
stall occured

Cycle                  127 ----------------------------------------------------

cycle        127
stall occured

Cycle                  128 ----------------------------------------------------

cycle        128
stall occured

Cycle                  129 ----------------------------------------------------

cycle        129
stall occured

Cycle                  130 ----------------------------------------------------

cycle        130
stall occured

Cycle                  131 ----------------------------------------------------

cycle        131
stall occured

Cycle                  132 ----------------------------------------------------

cycle        132
stall occured

Cycle                  133 ----------------------------------------------------

cycle        133
stall occured

Cycle                  134 ----------------------------------------------------

cycle        134
stall occured

Cycle                  135 ----------------------------------------------------

cycle        135
stall occured

Cycle                  136 ----------------------------------------------------

cycle        136
stall occured

Cycle                  137 ----------------------------------------------------

cycle        137
stall occured

Cycle                  138 ----------------------------------------------------

cycle        138
stall occured

Cycle                  139 ----------------------------------------------------

cycle        139
stall occured

Cycle                  140 ----------------------------------------------------

cycle        140
stall occured

Cycle                  141 ----------------------------------------------------

cycle        141
stall occured

Cycle                  142 ----------------------------------------------------

cycle        142
stall occured

Cycle                  143 ----------------------------------------------------

cycle        143
stall occured

Cycle                  144 ----------------------------------------------------

cycle        144
stall occured

Cycle                  145 ----------------------------------------------------

cycle        145
stall occured

Cycle                  146 ----------------------------------------------------

cycle        146
stall occured

Cycle                  147 ----------------------------------------------------

cycle        147
stall occured

Cycle                  148 ----------------------------------------------------

cycle        148
stall occured

Cycle                  149 ----------------------------------------------------

cycle        149
stall occured

Cycle                  150 ----------------------------------------------------

cycle        150
stall occured

Cycle                  151 ----------------------------------------------------

cycle        151
stall occured

Cycle                  152 ----------------------------------------------------

cycle        152
stall occured

Cycle                  153 ----------------------------------------------------

cycle        153
stall occured

Cycle                  154 ----------------------------------------------------

cycle        154
stall occured

Cycle                  155 ----------------------------------------------------

cycle        155
stall occured

Cycle                  156 ----------------------------------------------------

cycle        156
stall occured

Cycle                  157 ----------------------------------------------------

cycle        157
stall occured

Cycle                  158 ----------------------------------------------------

cycle        158
stall occured

Cycle                  159 ----------------------------------------------------

cycle        159
stall occured

Cycle                  160 ----------------------------------------------------

cycle        160
stall occured

Cycle                  161 ----------------------------------------------------

cycle        161
stall occured

Cycle                  162 ----------------------------------------------------

cycle        162
stall occured

Cycle                  163 ----------------------------------------------------

cycle        163
stall occured

Cycle                  164 ----------------------------------------------------

cycle        164
stall occured

Cycle                  165 ----------------------------------------------------

cycle        165
stall occured

Cycle                  166 ----------------------------------------------------

cycle        166
stall occured

Cycle                  167 ----------------------------------------------------

cycle        167
stall occured

Cycle                  168 ----------------------------------------------------

cycle        168
stall occured

Cycle                  169 ----------------------------------------------------

cycle        169
stall occured

Cycle                  170 ----------------------------------------------------

cycle        170
stall occured

Cycle                  171 ----------------------------------------------------

cycle        171
stall occured

Cycle                  172 ----------------------------------------------------

cycle        172
Mem on pc                  516
Store                    0 on                  480
stall occured

Cycle                  173 ----------------------------------------------------

cycle        173
Write Back
WriteE writes                  480 on  4
Fetch1
Fetch : from Pc                  520 , expanded inst : 20706000600060006060, 
rrmovq %'h7, %'h0

Cycle                  174 ----------------------------------------------------

cycle        174
Exec on pc                  518
Fetch1
Fetch : from Pc                  522 , expanded inst : 60006000600060602003, 
addq %'h0, %'h0

Cycle                  175 ----------------------------------------------------

cycle        175
stall occured

Cycle                  176 ----------------------------------------------------

cycle        176
stall occured

Cycle                  177 ----------------------------------------------------

cycle        177
stall occured

Cycle                  178 ----------------------------------------------------

cycle        178
stall occured

Cycle                  179 ----------------------------------------------------

cycle        179
stall occured

Cycle                  180 ----------------------------------------------------

cycle        180
stall occured

Cycle                  181 ----------------------------------------------------

cycle        181
stall occured

Cycle                  182 ----------------------------------------------------

cycle        182
stall occured

Cycle                  183 ----------------------------------------------------

cycle        183
stall occured

Cycle                  184 ----------------------------------------------------

cycle        184
stall occured

Cycle                  185 ----------------------------------------------------

cycle        185
stall occured

Cycle                  186 ----------------------------------------------------

cycle        186
stall occured

Cycle                  187 ----------------------------------------------------

cycle        187
stall occured

Cycle                  188 ----------------------------------------------------

cycle        188
stall occured

Cycle                  189 ----------------------------------------------------

cycle        189
stall occured

Cycle                  190 ----------------------------------------------------

cycle        190
stall occured

Cycle                  191 ----------------------------------------------------

cycle        191
stall occured

Cycle                  192 ----------------------------------------------------

cycle        192
stall occured

Cycle                  193 ----------------------------------------------------

cycle        193
stall occured

Cycle                  194 ----------------------------------------------------

cycle        194
stall occured

Cycle                  195 ----------------------------------------------------

cycle        195
stall occured

Cycle                  196 ----------------------------------------------------

cycle        196
stall occured

Cycle                  197 ----------------------------------------------------

cycle        197
stall occured

Cycle                  198 ----------------------------------------------------

cycle        198
stall occured

Cycle                  199 ----------------------------------------------------

cycle        199
stall occured

Cycle                  200 ----------------------------------------------------

cycle        200
stall occured

Cycle                  201 ----------------------------------------------------

cycle        201
stall occured

Cycle                  202 ----------------------------------------------------

cycle        202
stall occured

Cycle                  203 ----------------------------------------------------

cycle        203
stall occured

Cycle                  204 ----------------------------------------------------

cycle        204
stall occured

Cycle                  205 ----------------------------------------------------

cycle        205
stall occured

Cycle                  206 ----------------------------------------------------

cycle        206
stall occured

Cycle                  207 ----------------------------------------------------

cycle        207
stall occured

Cycle                  208 ----------------------------------------------------

cycle        208
stall occured

Cycle                  209 ----------------------------------------------------

cycle        209
stall occured

Cycle                  210 ----------------------------------------------------

cycle        210
stall occured

Cycle                  211 ----------------------------------------------------

cycle        211
stall occured

Cycle                  212 ----------------------------------------------------

cycle        212
stall occured

Cycle                  213 ----------------------------------------------------

cycle        213
stall occured

Cycle                  214 ----------------------------------------------------

cycle        214
stall occured

Cycle                  215 ----------------------------------------------------

cycle        215
stall occured

Cycle                  216 ----------------------------------------------------

cycle        216
stall occured

Cycle                  217 ----------------------------------------------------

cycle        217
stall occured

Cycle                  218 ----------------------------------------------------

cycle        218
stall occured

Cycle                  219 ----------------------------------------------------

cycle        219
stall occured

Cycle                  220 ----------------------------------------------------

cycle        220
stall occured

Cycle                  221 ----------------------------------------------------

cycle        221
stall occured

Cycle                  222 ----------------------------------------------------

cycle        222
stall occured

Cycle                  223 ----------------------------------------------------

cycle        223
stall occured

Cycle                  224 ----------------------------------------------------

cycle        224
stall occured

Cycle                  225 ----------------------------------------------------

cycle        225
stall occured

Cycle                  226 ----------------------------------------------------

cycle        226
stall occured

Cycle                  227 ----------------------------------------------------

cycle        227
stall occured

Cycle                  228 ----------------------------------------------------

cycle        228
stall occured

Cycle                  229 ----------------------------------------------------

cycle        229
stall occured

Cycle                  230 ----------------------------------------------------

cycle        230
stall occured

Cycle                  231 ----------------------------------------------------

cycle        231
stall occured

Cycle                  232 ----------------------------------------------------

cycle        232
stall occured

Cycle                  233 ----------------------------------------------------

cycle        233
stall occured

Cycle                  234 ----------------------------------------------------

cycle        234
stall occured

Cycle                  235 ----------------------------------------------------

cycle        235
stall occured

Cycle                  236 ----------------------------------------------------

cycle        236
stall occured

Cycle                  237 ----------------------------------------------------

cycle        237
stall occured

Cycle                  238 ----------------------------------------------------

cycle        238
stall occured

Cycle                  239 ----------------------------------------------------

cycle        239
stall occured

Cycle                  240 ----------------------------------------------------

cycle        240
stall occured

Cycle                  241 ----------------------------------------------------

cycle        241
stall occured

Cycle                  242 ----------------------------------------------------

cycle        242
stall occured

Cycle                  243 ----------------------------------------------------

cycle        243
stall occured

Cycle                  244 ----------------------------------------------------

cycle        244
stall occured

Cycle                  245 ----------------------------------------------------

cycle        245
stall occured

Cycle                  246 ----------------------------------------------------

cycle        246
stall occured

Cycle                  247 ----------------------------------------------------

cycle        247
stall occured

Cycle                  248 ----------------------------------------------------

cycle        248
stall occured

Cycle                  249 ----------------------------------------------------

cycle        249
stall occured

Cycle                  250 ----------------------------------------------------

cycle        250
stall occured

Cycle                  251 ----------------------------------------------------

cycle        251
stall occured

Cycle                  252 ----------------------------------------------------

cycle        252
stall occured

Cycle                  253 ----------------------------------------------------

cycle        253
stall occured

Cycle                  254 ----------------------------------------------------

cycle        254
stall occured

Cycle                  255 ----------------------------------------------------

cycle        255
stall occured

Cycle                  256 ----------------------------------------------------

cycle        256
stall occured

Cycle                  257 ----------------------------------------------------

cycle        257
stall occured

Cycle                  258 ----------------------------------------------------

cycle        258
stall occured

Cycle                  259 ----------------------------------------------------

cycle        259
stall occured

Cycle                  260 ----------------------------------------------------

cycle        260
stall occured

Cycle                  261 ----------------------------------------------------

cycle        261
stall occured

Cycle                  262 ----------------------------------------------------

cycle        262
stall occured

Cycle                  263 ----------------------------------------------------

cycle        263
stall occured

Cycle                  264 ----------------------------------------------------

cycle        264
stall occured

Cycle                  265 ----------------------------------------------------

cycle        265
stall occured

Cycle                  266 ----------------------------------------------------

cycle        266
stall occured

Cycle                  267 ----------------------------------------------------

cycle        267
stall occured

Cycle                  268 ----------------------------------------------------

cycle        268
stall occured

Cycle                  269 ----------------------------------------------------

cycle        269
stall occured

Cycle                  270 ----------------------------------------------------

cycle        270
stall occured

Cycle                  271 ----------------------------------------------------

cycle        271
stall occured

Cycle                  272 ----------------------------------------------------

cycle        272
stall occured

Cycle                  273 ----------------------------------------------------

cycle        273
stall occured

Cycle                  274 ----------------------------------------------------

cycle        274
stall occured

Cycle                  275 ----------------------------------------------------

cycle        275
Mem on pc                  518
Store                    0 on                  472
Exec on pc                  520
stall occured

Cycle                  276 ----------------------------------------------------

cycle        276
Mem on pc                  520
Write Back
WriteE writes                  472 on  4
stall occured

Cycle                  277 ----------------------------------------------------

cycle        277
Write Back
WriteE writes                   15 on  0
Fetch1
Fetch : from Pc                  524 , expanded inst : 600060006060200330f1, 
addq %'h0, %'h0

Cycle                  278 ----------------------------------------------------

cycle        278
Exec on pc                  522
stall occured

Cycle                  279 ----------------------------------------------------

cycle        279
Mem on pc                  522
stall occured

Cycle                  280 ----------------------------------------------------

cycle        280
Write Back
WriteE writes                   30 on  0
Fetch1
Fetch : from Pc                  526 , expanded inst : 60006060200330f10800, 
addq %'h0, %'h0

Cycle                  281 ----------------------------------------------------

cycle        281
Exec on pc                  524
stall occured

Cycle                  282 ----------------------------------------------------

cycle        282
Mem on pc                  524
stall occured

Cycle                  283 ----------------------------------------------------

cycle        283
Write Back
WriteE writes                   60 on  0
Fetch1
Fetch : from Pc                  528 , expanded inst : 6060200330f108000000, 
addq %'h6, %'h0

Cycle                  284 ----------------------------------------------------

cycle        284
Exec on pc                  526
stall occured

Cycle                  285 ----------------------------------------------------

cycle        285
Mem on pc                  526
stall occured

Cycle                  286 ----------------------------------------------------

cycle        286
Write Back
WriteE writes                  120 on  0
Fetch1
Fetch : from Pc                  530 , expanded inst : 200330f1080000000000, 
rrmovq %'h0, %'h3

Cycle                  287 ----------------------------------------------------

cycle        287
Exec on pc                  528
stall occured

Cycle                  288 ----------------------------------------------------

cycle        288
Mem on pc                  528
stall occured

Cycle                  289 ----------------------------------------------------

cycle        289
Write Back
WriteE writes                  184 on  0
Fetch1
Fetch : from Pc                  532 , expanded inst : 30f10800000000000000, 
irmovq $'h0000000000000008,  %'h1

Cycle                  290 ----------------------------------------------------

cycle        290
Exec on pc                  530
Fetch1
Fetch : from Pc                  542 , expanded inst : 61132031616171940200, 
subq %'h1, %'h3

Cycle                  291 ----------------------------------------------------

cycle        291
Mem on pc                  530
Exec on pc                  532
stall occured

Cycle                  292 ----------------------------------------------------

cycle        292
Mem on pc                  532
Write Back
WriteE writes                  184 on  3
stall occured

Cycle                  293 ----------------------------------------------------

cycle        293
Write Back
WriteE writes                    8 on  1
Fetch1
Fetch : from Pc                  544 , expanded inst : 20316161719402000000, 
rrmovq %'h3, %'h1

Cycle                  294 ----------------------------------------------------

cycle        294
Exec on pc                  542
stall occured

Cycle                  295 ----------------------------------------------------

cycle        295
Mem on pc                  542
stall occured

Cycle                  296 ----------------------------------------------------

cycle        296
Write Back
WriteE writes                  176 on  3
Fetch1
Fetch : from Pc                  546 , expanded inst : 61617194020000000000, 
subq %'h6, %'h1

Cycle                  297 ----------------------------------------------------

cycle        297
Exec on pc                  544
stall occured

Cycle                  298 ----------------------------------------------------

cycle        298
Mem on pc                  544
stall occured

Cycle                  299 ----------------------------------------------------

cycle        299
Write Back
WriteE writes                  176 on  1
Fetch1
Fetch : from Pc                  548 , expanded inst : 71940200000000000030, 
jle $'h0000000000000294

Cycle                  300 ----------------------------------------------------

cycle        300
Exec on pc                  546
Fetch1
Fetch : from Pc                  557 , expanded inst : 30f10800000000000000, 
irmovq $'h0000000000000008,  %'h1

Cycle                  301 ----------------------------------------------------

cycle        301
Mem on pc                  546
Exec on pc                  548
Fetch1
Fetch : from Pc                  567 , expanded inst : 206250a2000000000000, 
rrmovq %'h6, %'h2

Cycle                  302 ----------------------------------------------------

cycle        302
Mem on pc                  548
Exec on pc                  557
Write Back
WriteE writes                  112 on  1
Fetch1
Fetch : from Pc                  569 , expanded inst : 50a20000000000000000, 
mrmovq 'h0000000000000000(%'h2), %'ha

Cycle                  303 ----------------------------------------------------

cycle        303
Mem on pc                  557
Exec on pc                  567
Write Back
stall occured

Cycle                  304 ----------------------------------------------------

cycle        304
Mem on pc                  567
Write Back
WriteE writes                    8 on  1
stall occured

Cycle                  305 ----------------------------------------------------

cycle        305
Write Back
WriteE writes                   64 on  2
Fetch1
Fetch : from Pc                  579 , expanded inst : 50b20800000000000000, 
mrmovq 'h0000000000000008(%'h2), %'hb

Cycle                  306 ----------------------------------------------------

cycle        306
Exec on pc                  569
Fetch1
Fetch : from Pc                  589 , expanded inst : 20bc61ac756e02000000, 
rrmovq %'hb, %'hc

Cycle                  307 ----------------------------------------------------

cycle        307
Mem on pc                  569
Exec on pc                  579
stall occured

Cycle                  308 ----------------------------------------------------

cycle        308
stall occured

Cycle                  309 ----------------------------------------------------

cycle        309
stall occured

Cycle                  310 ----------------------------------------------------

cycle        310
stall occured

Cycle                  311 ----------------------------------------------------

cycle        311
stall occured

Cycle                  312 ----------------------------------------------------

cycle        312
stall occured

Cycle                  313 ----------------------------------------------------

cycle        313
stall occured

Cycle                  314 ----------------------------------------------------

cycle        314
stall occured

Cycle                  315 ----------------------------------------------------

cycle        315
stall occured

Cycle                  316 ----------------------------------------------------

cycle        316
stall occured

Cycle                  317 ----------------------------------------------------

cycle        317
stall occured

Cycle                  318 ----------------------------------------------------

cycle        318
stall occured

Cycle                  319 ----------------------------------------------------

cycle        319
stall occured

Cycle                  320 ----------------------------------------------------

cycle        320
stall occured

Cycle                  321 ----------------------------------------------------

cycle        321
stall occured

Cycle                  322 ----------------------------------------------------

cycle        322
stall occured

Cycle                  323 ----------------------------------------------------

cycle        323
stall occured

Cycle                  324 ----------------------------------------------------

cycle        324
stall occured

Cycle                  325 ----------------------------------------------------

cycle        325
stall occured

Cycle                  326 ----------------------------------------------------

cycle        326
stall occured

Cycle                  327 ----------------------------------------------------

cycle        327
stall occured

Cycle                  328 ----------------------------------------------------

cycle        328
stall occured

Cycle                  329 ----------------------------------------------------

cycle        329
stall occured

Cycle                  330 ----------------------------------------------------

cycle        330
stall occured

Cycle                  331 ----------------------------------------------------

cycle        331
stall occured

Cycle                  332 ----------------------------------------------------

cycle        332
stall occured

Cycle                  333 ----------------------------------------------------

cycle        333
stall occured

Cycle                  334 ----------------------------------------------------

cycle        334
stall occured

Cycle                  335 ----------------------------------------------------

cycle        335
stall occured

Cycle                  336 ----------------------------------------------------

cycle        336
stall occured

Cycle                  337 ----------------------------------------------------

cycle        337
stall occured

Cycle                  338 ----------------------------------------------------

cycle        338
stall occured

Cycle                  339 ----------------------------------------------------

cycle        339
stall occured

Cycle                  340 ----------------------------------------------------

cycle        340
stall occured

Cycle                  341 ----------------------------------------------------

cycle        341
stall occured

Cycle                  342 ----------------------------------------------------

cycle        342
stall occured

Cycle                  343 ----------------------------------------------------

cycle        343
stall occured

Cycle                  344 ----------------------------------------------------

cycle        344
stall occured

Cycle                  345 ----------------------------------------------------

cycle        345
stall occured

Cycle                  346 ----------------------------------------------------

cycle        346
stall occured

Cycle                  347 ----------------------------------------------------

cycle        347
stall occured

Cycle                  348 ----------------------------------------------------

cycle        348
stall occured

Cycle                  349 ----------------------------------------------------

cycle        349
stall occured

Cycle                  350 ----------------------------------------------------

cycle        350
stall occured

Cycle                  351 ----------------------------------------------------

cycle        351
stall occured

Cycle                  352 ----------------------------------------------------

cycle        352
stall occured

Cycle                  353 ----------------------------------------------------

cycle        353
stall occured

Cycle                  354 ----------------------------------------------------

cycle        354
stall occured

Cycle                  355 ----------------------------------------------------

cycle        355
stall occured

Cycle                  356 ----------------------------------------------------

cycle        356
stall occured

Cycle                  357 ----------------------------------------------------

cycle        357
stall occured

Cycle                  358 ----------------------------------------------------

cycle        358
stall occured

Cycle                  359 ----------------------------------------------------

cycle        359
stall occured

Cycle                  360 ----------------------------------------------------

cycle        360
stall occured

Cycle                  361 ----------------------------------------------------

cycle        361
stall occured

Cycle                  362 ----------------------------------------------------

cycle        362
stall occured

Cycle                  363 ----------------------------------------------------

cycle        363
stall occured

Cycle                  364 ----------------------------------------------------

cycle        364
stall occured

Cycle                  365 ----------------------------------------------------

cycle        365
stall occured

Cycle                  366 ----------------------------------------------------

cycle        366
stall occured

Cycle                  367 ----------------------------------------------------

cycle        367
stall occured

Cycle                  368 ----------------------------------------------------

cycle        368
stall occured

Cycle                  369 ----------------------------------------------------

cycle        369
stall occured

Cycle                  370 ----------------------------------------------------

cycle        370
stall occured

Cycle                  371 ----------------------------------------------------

cycle        371
stall occured

Cycle                  372 ----------------------------------------------------

cycle        372
stall occured

Cycle                  373 ----------------------------------------------------

cycle        373
stall occured

Cycle                  374 ----------------------------------------------------

cycle        374
stall occured

Cycle                  375 ----------------------------------------------------

cycle        375
stall occured

Cycle                  376 ----------------------------------------------------

cycle        376
stall occured

Cycle                  377 ----------------------------------------------------

cycle        377
stall occured

Cycle                  378 ----------------------------------------------------

cycle        378
stall occured

Cycle                  379 ----------------------------------------------------

cycle        379
stall occured

Cycle                  380 ----------------------------------------------------

cycle        380
stall occured

Cycle                  381 ----------------------------------------------------

cycle        381
stall occured

Cycle                  382 ----------------------------------------------------

cycle        382
stall occured

Cycle                  383 ----------------------------------------------------

cycle        383
stall occured

Cycle                  384 ----------------------------------------------------

cycle        384
stall occured

Cycle                  385 ----------------------------------------------------

cycle        385
stall occured

Cycle                  386 ----------------------------------------------------

cycle        386
stall occured

Cycle                  387 ----------------------------------------------------

cycle        387
stall occured

Cycle                  388 ----------------------------------------------------

cycle        388
stall occured

Cycle                  389 ----------------------------------------------------

cycle        389
stall occured

Cycle                  390 ----------------------------------------------------

cycle        390
stall occured

Cycle                  391 ----------------------------------------------------

cycle        391
stall occured

Cycle                  392 ----------------------------------------------------

cycle        392
stall occured

Cycle                  393 ----------------------------------------------------

cycle        393
stall occured

Cycle                  394 ----------------------------------------------------

cycle        394
stall occured

Cycle                  395 ----------------------------------------------------

cycle        395
stall occured

Cycle                  396 ----------------------------------------------------

cycle        396
stall occured

Cycle                  397 ----------------------------------------------------

cycle        397
stall occured

Cycle                  398 ----------------------------------------------------

cycle        398
stall occured

Cycle                  399 ----------------------------------------------------

cycle        399
stall occured

Cycle                  400 ----------------------------------------------------

cycle        400
stall occured

Cycle                  401 ----------------------------------------------------

cycle        401
stall occured

Cycle                  402 ----------------------------------------------------

cycle        402
stall occured

Cycle                  403 ----------------------------------------------------

cycle        403
stall occured

Cycle                  404 ----------------------------------------------------

cycle        404
stall occured

Cycle                  405 ----------------------------------------------------

cycle        405
stall occured

Cycle                  406 ----------------------------------------------------

cycle        406
stall occured

Cycle                  407 ----------------------------------------------------

cycle        407
stall occured

Cycle                  408 ----------------------------------------------------

cycle        408
stall occured

Cycle                  409 ----------------------------------------------------

cycle        409
stall occured

Cycle                  410 ----------------------------------------------------

cycle        410
stall occured

Cycle                  411 ----------------------------------------------------

cycle        411
stall occured

Cycle                  412 ----------------------------------------------------

cycle        412
stall occured

Cycle                  413 ----------------------------------------------------

cycle        413
stall occured

Cycle                  414 ----------------------------------------------------

cycle        414
stall occured

Cycle                  415 ----------------------------------------------------

cycle        415
stall occured

Cycle                  416 ----------------------------------------------------

cycle        416
stall occured

Cycle                  417 ----------------------------------------------------

cycle        417
stall occured

Cycle                  418 ----------------------------------------------------

cycle        418
stall occured

Cycle                  419 ----------------------------------------------------

cycle        419
stall occured

Cycle                  420 ----------------------------------------------------

cycle        420
stall occured

Cycle                  421 ----------------------------------------------------

cycle        421
stall occured

Cycle                  422 ----------------------------------------------------

cycle        422
stall occured

Cycle                  423 ----------------------------------------------------

cycle        423
stall occured

Cycle                  424 ----------------------------------------------------

cycle        424
stall occured

Cycle                  425 ----------------------------------------------------

cycle        425
stall occured

Cycle                  426 ----------------------------------------------------

cycle        426
stall occured

Cycle                  427 ----------------------------------------------------

cycle        427
stall occured

Cycle                  428 ----------------------------------------------------

cycle        428
stall occured

Cycle                  429 ----------------------------------------------------

cycle        429
stall occured

Cycle                  430 ----------------------------------------------------

cycle        430
stall occured

Cycle                  431 ----------------------------------------------------

cycle        431
stall occured

Cycle                  432 ----------------------------------------------------

cycle        432
stall occured

Cycle                  433 ----------------------------------------------------

cycle        433
stall occured

Cycle                  434 ----------------------------------------------------

cycle        434
stall occured

Cycle                  435 ----------------------------------------------------

cycle        435
stall occured

Cycle                  436 ----------------------------------------------------

cycle        436
stall occured

Cycle                  437 ----------------------------------------------------

cycle        437
stall occured

Cycle                  438 ----------------------------------------------------

cycle        438
stall occured

Cycle                  439 ----------------------------------------------------

cycle        439
stall occured

Cycle                  440 ----------------------------------------------------

cycle        440
stall occured

Cycle                  441 ----------------------------------------------------

cycle        441
stall occured

Cycle                  442 ----------------------------------------------------

cycle        442
stall occured

Cycle                  443 ----------------------------------------------------

cycle        443
stall occured

Cycle                  444 ----------------------------------------------------

cycle        444
stall occured

Cycle                  445 ----------------------------------------------------

cycle        445
stall occured

Cycle                  446 ----------------------------------------------------

cycle        446
stall occured

Cycle                  447 ----------------------------------------------------

cycle        447
stall occured

Cycle                  448 ----------------------------------------------------

cycle        448
stall occured

Cycle                  449 ----------------------------------------------------

cycle        449
stall occured

Cycle                  450 ----------------------------------------------------

cycle        450
stall occured

Cycle                  451 ----------------------------------------------------

cycle        451
stall occured

Cycle                  452 ----------------------------------------------------

cycle        452
stall occured

Cycle                  453 ----------------------------------------------------

cycle        453
stall occured

Cycle                  454 ----------------------------------------------------

cycle        454
stall occured

Cycle                  455 ----------------------------------------------------

cycle        455
stall occured

Cycle                  456 ----------------------------------------------------

cycle        456
stall occured

Cycle                  457 ----------------------------------------------------

cycle        457
stall occured

Cycle                  458 ----------------------------------------------------

cycle        458
stall occured

Cycle                  459 ----------------------------------------------------

cycle        459
stall occured

Cycle                  460 ----------------------------------------------------

cycle        460
stall occured

Cycle                  461 ----------------------------------------------------

cycle        461
stall occured

Cycle                  462 ----------------------------------------------------

cycle        462
stall occured

Cycle                  463 ----------------------------------------------------

cycle        463
stall occured

Cycle                  464 ----------------------------------------------------

cycle        464
stall occured

Cycle                  465 ----------------------------------------------------

cycle        465
stall occured

Cycle                  466 ----------------------------------------------------

cycle        466
stall occured

Cycle                  467 ----------------------------------------------------

cycle        467
stall occured

Cycle                  468 ----------------------------------------------------

cycle        468
stall occured

Cycle                  469 ----------------------------------------------------

cycle        469
stall occured

Cycle                  470 ----------------------------------------------------

cycle        470
stall occured

Cycle                  471 ----------------------------------------------------

cycle        471
stall occured

Cycle                  472 ----------------------------------------------------

cycle        472
stall occured

Cycle                  473 ----------------------------------------------------

cycle        473
stall occured

Cycle                  474 ----------------------------------------------------

cycle        474
stall occured

Cycle                  475 ----------------------------------------------------

cycle        475
stall occured

Cycle                  476 ----------------------------------------------------

cycle        476
stall occured

Cycle                  477 ----------------------------------------------------

cycle        477
stall occured

Cycle                  478 ----------------------------------------------------

cycle        478
stall occured

Cycle                  479 ----------------------------------------------------

cycle        479
stall occured

Cycle                  480 ----------------------------------------------------

cycle        480
stall occured

Cycle                  481 ----------------------------------------------------

cycle        481
stall occured

Cycle                  482 ----------------------------------------------------

cycle        482
stall occured

Cycle                  483 ----------------------------------------------------

cycle        483
stall occured

Cycle                  484 ----------------------------------------------------

cycle        484
stall occured

Cycle                  485 ----------------------------------------------------

cycle        485
stall occured

Cycle                  486 ----------------------------------------------------

cycle        486
stall occured

Cycle                  487 ----------------------------------------------------

cycle        487
stall occured

Cycle                  488 ----------------------------------------------------

cycle        488
stall occured

Cycle                  489 ----------------------------------------------------

cycle        489
stall occured

Cycle                  490 ----------------------------------------------------

cycle        490
stall occured

Cycle                  491 ----------------------------------------------------

cycle        491
stall occured

Cycle                  492 ----------------------------------------------------

cycle        492
stall occured

Cycle                  493 ----------------------------------------------------

cycle        493
stall occured

Cycle                  494 ----------------------------------------------------

cycle        494
stall occured

Cycle                  495 ----------------------------------------------------

cycle        495
stall occured

Cycle                  496 ----------------------------------------------------

cycle        496
stall occured

Cycle                  497 ----------------------------------------------------

cycle        497
stall occured

Cycle                  498 ----------------------------------------------------

cycle        498
stall occured

Cycle                  499 ----------------------------------------------------

cycle        499
stall occured

Cycle                  500 ----------------------------------------------------

cycle        500
stall occured

Cycle                  501 ----------------------------------------------------

cycle        501
stall occured

Cycle                  502 ----------------------------------------------------

cycle        502
stall occured

Cycle                  503 ----------------------------------------------------

cycle        503
stall occured

Cycle                  504 ----------------------------------------------------

cycle        504
stall occured

Cycle                  505 ----------------------------------------------------

cycle        505
stall occured

Cycle                  506 ----------------------------------------------------

cycle        506
stall occured

Cycle                  507 ----------------------------------------------------

cycle        507
stall occured

Cycle                  508 ----------------------------------------------------

cycle        508
stall occured

Cycle                  509 ----------------------------------------------------

cycle        509
stall occured

Cycle                  510 ----------------------------------------------------

cycle        510
stall occured

Cycle                  511 ----------------------------------------------------

cycle        511
stall occured

Cycle                  512 ----------------------------------------------------

cycle        512
stall occured

Cycle                  513 ----------------------------------------------------

cycle        513
stall occured

Cycle                  514 ----------------------------------------------------

cycle        514
stall occured

Cycle                  515 ----------------------------------------------------

cycle        515
stall occured

Cycle                  516 ----------------------------------------------------

cycle        516
stall occured

Cycle                  517 ----------------------------------------------------

cycle        517
stall occured

Cycle                  518 ----------------------------------------------------

cycle        518
stall occured

Cycle                  519 ----------------------------------------------------

cycle        519
stall occured

Cycle                  520 ----------------------------------------------------

cycle        520
stall occured

Cycle                  521 ----------------------------------------------------

cycle        521
stall occured

Cycle                  522 ----------------------------------------------------

cycle        522
stall occured

Cycle                  523 ----------------------------------------------------

cycle        523
stall occured

Cycle                  524 ----------------------------------------------------

cycle        524
stall occured

Cycle                  525 ----------------------------------------------------

cycle        525
stall occured

Cycle                  526 ----------------------------------------------------

cycle        526
stall occured

Cycle                  527 ----------------------------------------------------

cycle        527
stall occured

Cycle                  528 ----------------------------------------------------

cycle        528
stall occured

Cycle                  529 ----------------------------------------------------

cycle        529
stall occured

Cycle                  530 ----------------------------------------------------

cycle        530
stall occured

Cycle                  531 ----------------------------------------------------

cycle        531
stall occured

Cycle                  532 ----------------------------------------------------

cycle        532
stall occured

Cycle                  533 ----------------------------------------------------

cycle        533
stall occured

Cycle                  534 ----------------------------------------------------

cycle        534
stall occured

Cycle                  535 ----------------------------------------------------

cycle        535
stall occured

Cycle                  536 ----------------------------------------------------

cycle        536
stall occured

Cycle                  537 ----------------------------------------------------

cycle        537
stall occured

Cycle                  538 ----------------------------------------------------

cycle        538
stall occured

Cycle                  539 ----------------------------------------------------

cycle        539
stall occured

Cycle                  540 ----------------------------------------------------

cycle        540
stall occured

Cycle                  541 ----------------------------------------------------

cycle        541
stall occured

Cycle                  542 ----------------------------------------------------

cycle        542
stall occured

Cycle                  543 ----------------------------------------------------

cycle        543
stall occured

Cycle                  544 ----------------------------------------------------

cycle        544
stall occured

Cycle                  545 ----------------------------------------------------

cycle        545
stall occured

Cycle                  546 ----------------------------------------------------

cycle        546
stall occured

Cycle                  547 ----------------------------------------------------

cycle        547
stall occured

Cycle                  548 ----------------------------------------------------

cycle        548
stall occured

Cycle                  549 ----------------------------------------------------

cycle        549
stall occured

Cycle                  550 ----------------------------------------------------

cycle        550
stall occured

Cycle                  551 ----------------------------------------------------

cycle        551
stall occured

Cycle                  552 ----------------------------------------------------

cycle        552
stall occured

Cycle                  553 ----------------------------------------------------

cycle        553
stall occured

Cycle                  554 ----------------------------------------------------

cycle        554
stall occured

Cycle                  555 ----------------------------------------------------

cycle        555
stall occured

Cycle                  556 ----------------------------------------------------

cycle        556
stall occured

Cycle                  557 ----------------------------------------------------

cycle        557
stall occured

Cycle                  558 ----------------------------------------------------

cycle        558
stall occured

Cycle                  559 ----------------------------------------------------

cycle        559
stall occured

Cycle                  560 ----------------------------------------------------

cycle        560
stall occured

Cycle                  561 ----------------------------------------------------

cycle        561
stall occured

Cycle                  562 ----------------------------------------------------

cycle        562
stall occured

Cycle                  563 ----------------------------------------------------

cycle        563
stall occured

Cycle                  564 ----------------------------------------------------

cycle        564
stall occured

Cycle                  565 ----------------------------------------------------

cycle        565
stall occured

Cycle                  566 ----------------------------------------------------

cycle        566
stall occured

Cycle                  567 ----------------------------------------------------

cycle        567
stall occured

Cycle                  568 ----------------------------------------------------

cycle        568
stall occured

Cycle                  569 ----------------------------------------------------

cycle        569
stall occured

Cycle                  570 ----------------------------------------------------

cycle        570
stall occured

Cycle                  571 ----------------------------------------------------

cycle        571
stall occured

Cycle                  572 ----------------------------------------------------

cycle        572
stall occured

Cycle                  573 ----------------------------------------------------

cycle        573
stall occured

Cycle                  574 ----------------------------------------------------

cycle        574
stall occured

Cycle                  575 ----------------------------------------------------

cycle        575
stall occured

Cycle                  576 ----------------------------------------------------

cycle        576
stall occured

Cycle                  577 ----------------------------------------------------

cycle        577
stall occured

Cycle                  578 ----------------------------------------------------

cycle        578
stall occured

Cycle                  579 ----------------------------------------------------

cycle        579
stall occured

Cycle                  580 ----------------------------------------------------

cycle        580
stall occured

Cycle                  581 ----------------------------------------------------

cycle        581
stall occured

Cycle                  582 ----------------------------------------------------

cycle        582
stall occured

Cycle                  583 ----------------------------------------------------

cycle        583
stall occured

Cycle                  584 ----------------------------------------------------

cycle        584
stall occured

Cycle                  585 ----------------------------------------------------

cycle        585
stall occured

Cycle                  586 ----------------------------------------------------

cycle        586
stall occured

Cycle                  587 ----------------------------------------------------

cycle        587
stall occured

Cycle                  588 ----------------------------------------------------

cycle        588
stall occured

Cycle                  589 ----------------------------------------------------

cycle        589
stall occured

Cycle                  590 ----------------------------------------------------

cycle        590
stall occured

Cycle                  591 ----------------------------------------------------

cycle        591
stall occured

Cycle                  592 ----------------------------------------------------

cycle        592
stall occured

Cycle                  593 ----------------------------------------------------

cycle        593
stall occured

Cycle                  594 ----------------------------------------------------

cycle        594
stall occured

Cycle                  595 ----------------------------------------------------

cycle        595
stall occured

Cycle                  596 ----------------------------------------------------

cycle        596
stall occured

Cycle                  597 ----------------------------------------------------

cycle        597
stall occured

Cycle                  598 ----------------------------------------------------

cycle        598
stall occured

Cycle                  599 ----------------------------------------------------

cycle        599
stall occured

Cycle                  600 ----------------------------------------------------

cycle        600
stall occured

Cycle                  601 ----------------------------------------------------

cycle        601
stall occured

Cycle                  602 ----------------------------------------------------

cycle        602
stall occured

Cycle                  603 ----------------------------------------------------

cycle        603
stall occured

Cycle                  604 ----------------------------------------------------

cycle        604
stall occured

Cycle                  605 ----------------------------------------------------

cycle        605
stall occured

Cycle                  606 ----------------------------------------------------

cycle        606
stall occured

Cycle                  607 ----------------------------------------------------

cycle        607
stall occured

Cycle                  608 ----------------------------------------------------

cycle        608
stall occured

Cycle                  609 ----------------------------------------------------

cycle        609
stall occured

Cycle                  610 ----------------------------------------------------

cycle        610
stall occured

Cycle                  611 ----------------------------------------------------

cycle        611
stall occured

Cycle                  612 ----------------------------------------------------

cycle        612
stall occured

Cycle                  613 ----------------------------------------------------

cycle        613
stall occured

Cycle                  614 ----------------------------------------------------

cycle        614
stall occured

Cycle                  615 ----------------------------------------------------

cycle        615
stall occured

Cycle                  616 ----------------------------------------------------

cycle        616
stall occured

Cycle                  617 ----------------------------------------------------

cycle        617
stall occured

Cycle                  618 ----------------------------------------------------

cycle        618
stall occured

Cycle                  619 ----------------------------------------------------

cycle        619
stall occured

Cycle                  620 ----------------------------------------------------

cycle        620
stall occured

Cycle                  621 ----------------------------------------------------

cycle        621
stall occured

Cycle                  622 ----------------------------------------------------

cycle        622
stall occured

Cycle                  623 ----------------------------------------------------

cycle        623
stall occured

Cycle                  624 ----------------------------------------------------

cycle        624
stall occured

Cycle                  625 ----------------------------------------------------

cycle        625
stall occured

Cycle                  626 ----------------------------------------------------

cycle        626
stall occured

Cycle                  627 ----------------------------------------------------

cycle        627
stall occured

Cycle                  628 ----------------------------------------------------

cycle        628
stall occured

Cycle                  629 ----------------------------------------------------

cycle        629
stall occured

Cycle                  630 ----------------------------------------------------

cycle        630
stall occured

Cycle                  631 ----------------------------------------------------

cycle        631
stall occured

Cycle                  632 ----------------------------------------------------

cycle        632
stall occured

Cycle                  633 ----------------------------------------------------

cycle        633
stall occured

Cycle                  634 ----------------------------------------------------

cycle        634
stall occured

Cycle                  635 ----------------------------------------------------

cycle        635
stall occured

Cycle                  636 ----------------------------------------------------

cycle        636
stall occured

Cycle                  637 ----------------------------------------------------

cycle        637
stall occured

Cycle                  638 ----------------------------------------------------

cycle        638
stall occured

Cycle                  639 ----------------------------------------------------

cycle        639
stall occured

Cycle                  640 ----------------------------------------------------

cycle        640
stall occured

Cycle                  641 ----------------------------------------------------

cycle        641
stall occured

Cycle                  642 ----------------------------------------------------

cycle        642
stall occured

Cycle                  643 ----------------------------------------------------

cycle        643
stall occured

Cycle                  644 ----------------------------------------------------

cycle        644
stall occured

Cycle                  645 ----------------------------------------------------

cycle        645
stall occured

Cycle                  646 ----------------------------------------------------

cycle        646
stall occured

Cycle                  647 ----------------------------------------------------

cycle        647
stall occured

Cycle                  648 ----------------------------------------------------

cycle        648
stall occured

[...]

cycle       6596
stall occured

Cycle                 6597 ----------------------------------------------------

cycle       6597
stall occured

Cycle                 6598 ----------------------------------------------------

cycle       6598
stall occured

Cycle                 6599 ----------------------------------------------------

cycle       6599
stall occured

Cycle                 6600 ----------------------------------------------------

cycle       6600
stall occured

Cycle                 6601 ----------------------------------------------------

cycle       6601
stall occured

Cycle                 6602 ----------------------------------------------------

cycle       6602
stall occured

Cycle                 6603 ----------------------------------------------------

cycle       6603
stall occured

Cycle                 6604 ----------------------------------------------------

cycle       6604
stall occured

Cycle                 6605 ----------------------------------------------------

cycle       6605
stall occured

Cycle                 6606 ----------------------------------------------------

cycle       6606
stall occured

Cycle                 6607 ----------------------------------------------------

cycle       6607
stall occured

Cycle                 6608 ----------------------------------------------------

cycle       6608
stall occured

Cycle                 6609 ----------------------------------------------------

cycle       6609
stall occured

Cycle                 6610 ----------------------------------------------------

cycle       6610
stall occured

Cycle                 6611 ----------------------------------------------------

cycle       6611
stall occured

Cycle                 6612 ----------------------------------------------------

cycle       6612
stall occured

Cycle                 6613 ----------------------------------------------------

cycle       6613
stall occured

Cycle                 6614 ----------------------------------------------------

cycle       6614
stall occured

Cycle                 6615 ----------------------------------------------------

cycle       6615
stall occured

Cycle                 6616 ----------------------------------------------------

cycle       6616
Mem on pc 12297829382473034520
Store                    0 on                   56
stall occured

Cycle                 6617 ----------------------------------------------------

cycle       6617
Write Back
WriteE writes                   56 on  4
Fetch1
Fetch : from Pc 12297829382473034524 , expanded inst : aaaaaaaaaaaaaaaaaaaa, 
push %'ha

Cycle                 6618 ----------------------------------------------------

cycle       6618
Exec on pc 12297829382473034522
stall occured

Cycle                 6619 ----------------------------------------------------

cycle       6619
stall occured

Cycle                 6620 ----------------------------------------------------

cycle       6620
stall occured

Cycle                 6621 ----------------------------------------------------

cycle       6621
stall occured

Cycle                 6622 ----------------------------------------------------

cycle       6622
stall occured

Cycle                 6623 ----------------------------------------------------

cycle       6623
stall occured

Cycle                 6624 ----------------------------------------------------

cycle       6624
stall occured

Cycle                 6625 ----------------------------------------------------

cycle       6625
stall occured

Cycle                 6626 ----------------------------------------------------

cycle       6626
stall occured

Cycle                 6627 ----------------------------------------------------

cycle       6627
stall occured

Cycle                 6628 ----------------------------------------------------

cycle       6628
stall occured

Cycle                 6629 ----------------------------------------------------

cycle       6629
stall occured

Cycle                 6630 ----------------------------------------------------

cycle       6630
stall occured

Cycle                 6631 ----------------------------------------------------

cycle       6631
stall occured

Cycle                 6632 ----------------------------------------------------

cycle       6632
stall occured

Cycle                 6633 ----------------------------------------------------

cycle       6633
stall occured

Cycle                 6634 ----------------------------------------------------

cycle       6634
stall occured

Cycle                 6635 ----------------------------------------------------

cycle       6635
stall occured

Cycle                 6636 ----------------------------------------------------

cycle       6636
stall occured

Cycle                 6637 ----------------------------------------------------

cycle       6637
stall occured

Cycle                 6638 ----------------------------------------------------

cycle       6638
stall occured

Cycle                 6639 ----------------------------------------------------

cycle       6639
stall occured

Cycle                 6640 ----------------------------------------------------

cycle       6640
stall occured

Cycle                 6641 ----------------------------------------------------

cycle       6641
stall occured

Cycle                 6642 ----------------------------------------------------

cycle       6642
stall occured

Cycle                 6643 ----------------------------------------------------

cycle       6643
stall occured

Cycle                 6644 ----------------------------------------------------

cycle       6644
stall occured

Cycle                 6645 ----------------------------------------------------

cycle       6645
stall occured

Cycle                 6646 ----------------------------------------------------

cycle       6646
stall occured

Cycle                 6647 ----------------------------------------------------

cycle       6647
stall occured

Cycle                 6648 ----------------------------------------------------

cycle       6648
stall occured

Cycle                 6649 ----------------------------------------------------

cycle       6649
stall occured

Cycle                 6650 ----------------------------------------------------

cycle       6650
stall occured

Cycle                 6651 ----------------------------------------------------

cycle       6651
stall occured

Cycle                 6652 ----------------------------------------------------

cycle       6652
stall occured

Cycle                 6653 ----------------------------------------------------

cycle       6653
stall occured

Cycle                 6654 ----------------------------------------------------

cycle       6654
stall occured

Cycle                 6655 ----------------------------------------------------

cycle       6655
stall occured

Cycle                 6656 ----------------------------------------------------

cycle       6656
stall occured

Cycle                 6657 ----------------------------------------------------

cycle       6657
stall occured

Cycle                 6658 ----------------------------------------------------

cycle       6658
stall occured

Cycle                 6659 ----------------------------------------------------

cycle       6659
stall occured

Cycle                 6660 ----------------------------------------------------

cycle       6660
stall occured

Cycle                 6661 ----------------------------------------------------

cycle       6661
stall occured

Cycle                 6662 ----------------------------------------------------

cycle       6662
stall occured

Cycle                 6663 ----------------------------------------------------

cycle       6663
stall occured

Cycle                 6664 ----------------------------------------------------

cycle       6664
stall occured

Cycle                 6665 ----------------------------------------------------

cycle       6665
stall occured

Cycle                 6666 ----------------------------------------------------

cycle       6666
stall occured

Cycle                 6667 ----------------------------------------------------

cycle       6667
stall occured

Cycle                 6668 ----------------------------------------------------

cycle       6668
stall occured

Cycle                 6669 ----------------------------------------------------

cycle       6669
stall occured

Cycle                 6670 ----------------------------------------------------

cycle       6670
stall occured

Cycle                 6671 ----------------------------------------------------

cycle       6671
stall occured

Cycle                 6672 ----------------------------------------------------

cycle       6672
stall occured

Cycle                 6673 ----------------------------------------------------

cycle       6673
stall occured

Cycle                 6674 ----------------------------------------------------

cycle       6674
stall occured

Cycle                 6675 ----------------------------------------------------

cycle       6675
stall occured

Cycle                 6676 ----------------------------------------------------

cycle       6676
stall occured

Cycle                 6677 ----------------------------------------------------

cycle       6677
stall occured

Cycle                 6678 ----------------------------------------------------

cycle       6678
stall occured

Cycle                 6679 ----------------------------------------------------

cycle       6679
stall occured

Cycle                 6680 ----------------------------------------------------

cycle       6680
stall occured

Cycle                 6681 ----------------------------------------------------

cycle       6681
stall occured

Cycle                 6682 ----------------------------------------------------

cycle       6682
stall occured

Cycle                 6683 ----------------------------------------------------

cycle       6683
stall occured

Cycle                 6684 ----------------------------------------------------

cycle       6684
stall occured

Cycle                 6685 ----------------------------------------------------

cycle       6685
stall occured

Cycle                 6686 ----------------------------------------------------

cycle       6686
stall occured

Cycle                 6687 ----------------------------------------------------

cycle       6687
stall occured

Cycle                 6688 ----------------------------------------------------

cycle       6688
stall occured

Cycle                 6689 ----------------------------------------------------

cycle       6689
stall occured

Cycle                 6690 ----------------------------------------------------

cycle       6690
stall occured

Cycle                 6691 ----------------------------------------------------

cycle       6691
stall occured

Cycle                 6692 ----------------------------------------------------

cycle       6692
stall occured

Cycle                 6693 ----------------------------------------------------

cycle       6693
stall occured

Cycle                 6694 ----------------------------------------------------

cycle       6694
stall occured

Cycle                 6695 ----------------------------------------------------

cycle       6695
stall occured

Cycle                 6696 ----------------------------------------------------

cycle       6696
stall occured

Cycle                 6697 ----------------------------------------------------

cycle       6697
stall occured

Cycle                 6698 ----------------------------------------------------

cycle       6698
stall occured

Cycle                 6699 ----------------------------------------------------

cycle       6699
stall occured

Cycle                 6700 ----------------------------------------------------

cycle       6700
stall occured

Cycle                 6701 ----------------------------------------------------

cycle       6701
stall occured

Cycle                 6702 ----------------------------------------------------

cycle       6702
stall occured

Cycle                 6703 ----------------------------------------------------

cycle       6703
stall occured

Cycle                 6704 ----------------------------------------------------

cycle       6704
stall occured

Cycle                 6705 ----------------------------------------------------

cycle       6705
stall occured

Cycle                 6706 ----------------------------------------------------

cycle       6706
stall occured

Cycle                 6707 ----------------------------------------------------

cycle       6707
stall occured

Cycle                 6708 ----------------------------------------------------

cycle       6708
stall occured

Cycle                 6709 ----------------------------------------------------

cycle       6709
stall occured

Cycle                 6710 ----------------------------------------------------

cycle       6710
stall occured

Cycle                 6711 ----------------------------------------------------

cycle       6711
stall occured

Cycle                 6712 ----------------------------------------------------

cycle       6712
stall occured

Cycle                 6713 ----------------------------------------------------

cycle       6713
stall occured

Cycle                 6714 ----------------------------------------------------

cycle       6714
stall occured

Cycle                 6715 ----------------------------------------------------

cycle       6715
stall occured

Cycle                 6716 ----------------------------------------------------

cycle       6716
stall occured

Cycle                 6717 ----------------------------------------------------

cycle       6717
stall occured

Cycle                 6718 ----------------------------------------------------

cycle       6718
stall occured

Cycle                 6719 ----------------------------------------------------

cycle       6719
Mem on pc 12297829382473034522
Store                    0 on                   48
stall occured

Cycle                 6720 ----------------------------------------------------

cycle       6720
Write Back
WriteE writes                   48 on  4
Fetch1
Fetch : from Pc 12297829382473034526 , expanded inst : aaaaaaaaaaaaaaaaaaaa, 
push %'ha

Cycle                 6721 ----------------------------------------------------

cycle       6721
Exec on pc 12297829382473034524
stall occured

Cycle                 6722 ----------------------------------------------------

cycle       6722
stall occured

Cycle                 6723 ----------------------------------------------------

cycle       6723
stall occured

Cycle                 6724 ----------------------------------------------------

cycle       6724
stall occured

Cycle                 6725 ----------------------------------------------------

cycle       6725
stall occured

Cycle                 6726 ----------------------------------------------------

cycle       6726
stall occured

Cycle                 6727 ----------------------------------------------------

cycle       6727
stall occured

Cycle                 6728 ----------------------------------------------------

cycle       6728
stall occured

Cycle                 6729 ----------------------------------------------------

cycle       6729
stall occured

Cycle                 6730 ----------------------------------------------------

cycle       6730
stall occured

Cycle                 6731 ----------------------------------------------------

cycle       6731
stall occured

Cycle                 6732 ----------------------------------------------------

cycle       6732
stall occured

Cycle                 6733 ----------------------------------------------------

cycle       6733
stall occured

Cycle                 6734 ----------------------------------------------------

cycle       6734
stall occured

Cycle                 6735 ----------------------------------------------------

cycle       6735
stall occured

Cycle                 6736 ----------------------------------------------------

cycle       6736
stall occured

Cycle                 6737 ----------------------------------------------------

cycle       6737
stall occured

Cycle                 6738 ----------------------------------------------------

cycle       6738
stall occured

Cycle                 6739 ----------------------------------------------------

cycle       6739
stall occured

Cycle                 6740 ----------------------------------------------------

cycle       6740
stall occured

Cycle                 6741 ----------------------------------------------------

cycle       6741
stall occured

Cycle                 6742 ----------------------------------------------------

cycle       6742
stall occured

Cycle                 6743 ----------------------------------------------------

cycle       6743
stall occured

Cycle                 6744 ----------------------------------------------------

cycle       6744
stall occured

Cycle                 6745 ----------------------------------------------------

cycle       6745
stall occured

Cycle                 6746 ----------------------------------------------------

cycle       6746
stall occured

Cycle                 6747 ----------------------------------------------------

cycle       6747
stall occured

Cycle                 6748 ----------------------------------------------------

cycle       6748
stall occured

Cycle                 6749 ----------------------------------------------------

cycle       6749
stall occured

Cycle                 6750 ----------------------------------------------------

cycle       6750
stall occured

Cycle                 6751 ----------------------------------------------------

cycle       6751
stall occured

Cycle                 6752 ----------------------------------------------------

cycle       6752
stall occured

Cycle                 6753 ----------------------------------------------------

cycle       6753
stall occured

Cycle                 6754 ----------------------------------------------------

cycle       6754
stall occured

Cycle                 6755 ----------------------------------------------------

cycle       6755
stall occured

Cycle                 6756 ----------------------------------------------------

cycle       6756
stall occured

Cycle                 6757 ----------------------------------------------------

cycle       6757
stall occured

Cycle                 6758 ----------------------------------------------------

cycle       6758
stall occured

Cycle                 6759 ----------------------------------------------------

cycle       6759
stall occured

Cycle                 6760 ----------------------------------------------------

cycle       6760
stall occured

Cycle                 6761 ----------------------------------------------------

cycle       6761
stall occured

Cycle                 6762 ----------------------------------------------------

cycle       6762
stall occured

Cycle                 6763 ----------------------------------------------------

cycle       6763
stall occured

Cycle                 6764 ----------------------------------------------------

cycle       6764
stall occured

Cycle                 6765 ----------------------------------------------------

cycle       6765
stall occured

Cycle                 6766 ----------------------------------------------------

cycle       6766
stall occured

Cycle                 6767 ----------------------------------------------------

cycle       6767
stall occured

Cycle                 6768 ----------------------------------------------------
